** OpenSolver Workbench experimental FEASpec CalculiX INP renderer
** Case plan: synthetic-truss-calculix-case-plan
** Source FEASpec: synthetic_truss
** This file is generated from experimental, human-reviewed FEASpec evidence.
** No industrial certification, compliance, production CAE, or accuracy claim.
** Solver execution was not performed by this renderer.
** Unit context: force=N, length=m, name=SI, stress=Pa
** Provenance: Human review: synthetic truss case approved for golden fixture.
** Provenance: Source FEASpec: synthetic_truss.
*NODE
1, 0, 0, 0
2, 1, 0, 0
*ELEMENT, TYPE=T3D2, ELSET=EALL
1, 1, 2
*MATERIAL, NAME=mat_aluminum
** FEASpec material model: isotropic_linear_elastic
*ELASTIC
70000000000, 0.33
*DENSITY
2700
** FEASpec truss section sec_truss
*SOLID SECTION, ELSET=EALL, MATERIAL=mat_aluminum
*BOUNDARY
1, 1, 1, 0
1, 2, 2, 0
1, 3, 3, 0
*CLOAD
2, 1, 100
*STEP, NAME=linear_static
*STATIC
*NODE PRINT, NSET=NALL
U
*EL PRINT, ELSET=EALL
S
*END STEP
