*HEADING
OSW CalculiX linear static deck: cantilever
Scope: v0.1 linear static only
*NODE
1, 0, 0, 0
2, 1, 0, 0
3, 1, 0.2, 0
4, 0, 0.2, 0
5, 0, 0, 0.2
6, 1, 0, 0.2
7, 1, 0.2, 0.2
8, 0, 0.2, 0.2
*ELEMENT, TYPE=C3D8, ELSET=EALL
1, 1, 2, 3, 4, 5, 6, 7, 8
*ELSET, ELSET=EALL
1
*NSET, NSET=NALL
1, 2, 3, 4, 5, 6, 7, 8
*NSET, NSET=FIXED
1, 4, 5, 8
*NSET, NSET=TIP
2, 3, 6, 7
*MATERIAL, NAME=steel
*ELASTIC
210000000000, 0.3
*DENSITY
7850
*SOLID SECTION, ELSET=EALL, MATERIAL=steel
*STEP, NAME=linear_static
*STATIC
*BOUNDARY
FIXED, 1, 3, 0
*CLOAD
TIP, 2, -100
*NODE PRINT, NSET=NALL
U
*EL PRINT, ELSET=EALL
S
*END STEP
